examples/national_grid/data/ireland/models/2008/sv2011.raw
<!DOCTYPE HTML PUBLIC "-//W3C//DTD HTML 4.0 Transitional//EN">
<!-- saved from url=(0084)http://www.eirgrid.com/EirgridPortal/uploads/Publications/Summer%20Valley%202011.raw -->
<HTML><HEAD>
<META http-equiv=Content-Type content="text/html; charset=windows-1252">
<META content="MSHTML 6.00.2900.3492" name=GENERATOR></HEAD>
<BODY><PRE>0,   100.00          / PSS/E-30.3    WED, NOV 26 2008  11:50
/ CASE: 2011;  SUMMER 01/07/2011; FORECAST STATEMENT 2008 -
/ FS08_SEP08 - MEMO  GALLERY_T;  16:19:04  TUESDAY, SEPTEMBE
    10,'F_M_____    ',  38.0000,1,     0.000,     0.000,   1,   3,1.04873,  -4.8442,   2
    11,'FMN_LOOP    ',  38.0000,1,     0.000,     0.000,   1,   1,1.05857,  -2.8812,   2
    12,'BEDFORD     ',  38.0000,1,     0.000,     0.000,   1,   1,1.03501,  -3.1561,   2
    13,'M_R_____    ',  38.0000,1,     0.000,     0.000,   1,   1,1.02846,  -3.7832,   2
    14,'F_I_____    ',  38.0000,1,     0.000,     0.000,   1,   3,1.03947,  -1.4118,   2
    15,'I_M_____    ',  38.0000,1,     0.000,     0.000,   1,   1,1.03623,  -2.5205,   2
  1021,'ARDNACRU    ', 110.0000,1,     0.000,     0.000,   4,   1,1.00397,   8.5273,   1
  1041,'AGHADA      ', 110.0000,1,     0.000,     0.000,   3,   1,1.01587,  10.0006,   1
  1042,'AGHADA      ', 220.0000,1,     0.000,     0.000,   3,   1,1.01982,  14.1922,   1
  1052,'AGHADA2     ', 220.0000,1,     0.000,     0.000,   3,   1,1.02000,  11.3013,   1
  1061,'ARIGNA      ', 110.0000,1,     0.000,     0.000,   9,   1,1.00282,   7.8295,   2
  1062,'AGHADA3     ', 220.0000,1,     0.000,     0.000,   3,   1,1.02000,  11.3013,   1
  1071,'AGANNYGA    ', 110.0000,1,     0.000,     0.000,   4,   1,1.00666,   7.8019,   1
  1072,'AGHADA4     ', 220.0000,1,     0.000,     0.000,   3,   1,1.01987,  14.2276,   1
  1081,'AHANE       ', 110.0000,1,     0.000,     0.000,   7,   1,1.01004,   8.5631,   2
  1091,'ADAMSTOW    ', 110.0000,1,     0.000,     0.000,   1,   1,1.04379,   0.2460,   2
  1101,'ANNER       ', 110.0000,1,     0.000,     0.000,   5,   3,0.98684,   4.2295,   5
  1121,'ARKLOW      ', 110.0000,1,     0.000,     0.000,   6,   1,1.02536,   1.7386,   1
  1122,'ARKLOW      ', 220.0000,1,     0.000,     0.000,   6,   1,1.02495,   2.4110,   1
  1131,'ATHEA       ', 110.0000,1,     0.000,     0.000,   7,   5,1.00000,  12.2252,   4
  1141,'ATHLONE     ', 110.0000,1,     0.000,     0.000,   9,   1,0.99287,   5.3510,   1
  1161,'AUGHINIS    ', 110.0000,1,     0.000,     0.000,   7,   3,1.00000,   9.4935,   1
  1181,'ARVA        ', 110.0000,1,     0.000,     0.000,  10,   1,1.01050,   5.2165,   1
  1201,'ARTANE      ', 110.0000,1,     0.000,     0.000,   1,   1,1.06263,  -1.1413,   2
  1221,'ATHY        ', 110.0000,1,     0.000,     0.000,   8,   1,1.01459,   2.3853,   1
  1231,'BALLYWAT    ', 110.0000,1,     0.000,     0.000,   6,   1,1.01311,   3.8469,   4
  1241,'BALLYCUM    ', 110.0000,1,     0.000,     0.000,   7,   1,1.00334,   8.5193,   1
  1251,'BOOLTIAG    ', 110.0000,1,     0.000,     0.000,   4,   1,1.00000,   8.2803,   2
  1271,'BALTRASN    ', 110.0000,1,     0.000,     0.000,  10,   1,1.03042,   0.6620,   1
  1281,'BALLYLIC    ', 110.0000,1,     0.000,     0.000,   3,   1,0.99883,  10.5622,   2
  1301,'BALLYBEG    ', 110.0000,1,     0.000,     0.000,   6,   1,1.02757,   0.9708,   1
  1321,'BLAKE       ', 110.0000,1,     0.000,     0.000,   8,   1,1.00994,   1.2591,   2
  1331,'BALLYCAD    ', 110.0000,1,     0.000,     0.000,   6,   1,1.01108,   4.0903,   1
  1341,'BINBANE     ', 110.0000,1,     0.000,     0.000,   9,   1,1.00665,  13.0260,   2
  1351,'BARODA      ', 110.0000,1,     0.000,     0.000,   8,   1,1.00793,   1.4739,   1
  1361,'BALLYDIN    ', 110.0000,1,     0.000,     0.000,   5,   1,0.99226,   4.1274,   1
  1371,'BALLYMUR    ', 110.0000,1,     0.000,     0.000,   4,   1,1.00052,   7.8522,   2
  1381,'BARNAHEL    ', 110.0000,1,     0.000,     0.000,   3,   1,1.01301,   9.7833,   1
  1391,'BARNAHEL    ', 110.0000,1,     0.000,     0.000,   3,   1,1.00894,   9.6508,   1
  1401,'BELLACOR    ', 110.0000,1,     0.000,     0.000,   9,   1,1.00774,   6.9747,   1
  1421,'BLACKROC    ', 110.0000,1,     0.000,     0.000,   1,   2,1.03312,  -0.1619,   2
  1441,'BANDON      ', 110.0000,1,     0.000,     0.000,   3,   1,0.99979,   9.5046,   1
  1461,'BARRYMOR    ', 110.0000,1,     0.000,     0.000,   5,   1,1.00368,   8.0393,   2
  1471,'BALGRIFF    ', 110.0000,1,     0.000,     0.000,   1,   1,1.07430,  -0.4328,   2
  1472,'BALGRIFF    ', 220.0000,1,     0.000,     0.000,   1,   1,1.06445,   0.5286,   2
  1481,'BUTLERST    ', 110.0000,1,     0.000,     0.000,   5,   1,1.00197,   3.5147,   1
  1501,'BRINNY      ', 110.0000,1,     0.000,     0.000,   3,   1,0.99964,   9.4954,   5
  1511,'BRINNY      ', 110.0000,1,     0.000,     0.000,   3,   1,0.99965,   9.4958,   5
  1541,'BANOGE      ', 110.0000,1,     0.000,     0.000,   6,   1,1.01778,   2.4485,   1
  1571,'BUNBEG      ', 110.0000,1,     0.000,     0.000,   9,   1,1.00408,  12.9329,   2
  1581,'CABRA       ', 110.0000,1,     0.000,     0.000,   1,   2,1.06226,  -1.1675,   2
  1601,'CLASHAVO    ', 110.0000,1,     0.000,     0.000,   3,   1,1.01084,  11.0273,   1
  1602,'CLASHAVO    ', 220.0000,1,     0.000,     0.000,   3,   1,1.02168,  12.0479,   1
  1611,'CLONKEEN    ', 110.0000,1,     0.000,     0.000,   7,   1,1.00475,  12.1969,   1
  1621,'COOLROE     ', 110.0000,1,     0.000,     0.000,   3,   1,1.00744,   9.9109,   1
  1631,'CORDERRY    ', 110.0000,1,     0.000,     0.000,   9,   1,1.00131,   8.8887,   1
  1641,'CASHLA      ', 110.0000,1,     0.000,     0.000,   9,   1,1.01748,   5.7884,   1
  1642,'CASHLA      ', 220.0000,1,     0.000,     0.000,   9,   1,1.02648,   6.9255,   1
  1651,'CLAHANE     ', 110.0000,1,     0.000,     0.000,   7,   5,1.00272,  11.8220,   1
  1661,'CASTLEBA    ', 110.0000,1,     0.000,     0.000,   9,   1,1.01716,   5.4660,   1
  1681,'CARRIGAD    ', 110.0000,1,     0.000,     0.000,   3,   1,1.00988,  10.6524,   1
  1691,'CENTRAL     ', 110.0000,1,     0.000,     0.000,   1,   1,1.03336,  -0.0839,   1
  1701,'CATH_FAL    ', 110.0000,1,     0.000,     0.000,   9,   1,1.00395,  11.7782,   1
  1711,'CROMCAST    ', 110.0000,1,     0.000,     0.000,   1,   1,1.07443,  -0.4612,   1
  1721,'CAHIR       ', 110.0000,1,     0.000,     0.000,   5,   1,0.98951,   5.1396,   1
  1731,'CROMCAST    ', 110.0000,1,     0.000,     0.000,   1,   1,1.07443,  -0.4612,   1
  1741,'CARRICKM    ', 110.0000,1,     0.000,     0.000,   2,   2,1.03338,  -0.0785,   2
  1742,'CARRICKM    ', 220.0000,1,     0.000,     0.000,   2,   2,1.03597,   1.6444,   1
  1751,'CARRICKM    ', 110.0000,1,     0.000,     0.000,   2,   1,1.03597,   1.6444,   1
  1761,'CLIFF       ', 110.0000,1,     0.000,     0.000,   9,   1,1.00386,  11.8942,   1
  1781,'CASTLEFA    ', 110.0000,1,     0.000,     0.000,   7,   3,0.99961,   9.4732,   5
  1791,'CASTLEFA    ', 110.0000,1,     0.000,     0.000,   7,   3,0.99960,   9.4720,   5
  1801,'COOKSTOW    ', 110.0000,1,     0.000,     0.000,   1,   2,1.04694,  -0.1419,   2
  1811,'COOKSTOW    ', 110.0000,1,     0.000,     0.000,   1,   1,1.03106,  -0.4312,   1
  1821,'CLOON       ', 110.0000,1,     0.000,     0.000,   9,   1,1.01210,   5.3524,   1
  1841,'CRANE       ', 110.0000,1,     0.000,     0.000,   6,   1,1.01267,   3.5778,   1
  1851,'CHERRYWO    ', 110.0000,1,     0.000,     0.000,   2,   1,1.03284,  -0.1175,   1
  1861,'CARICKON    ', 110.0000,1,     0.000,     0.000,   9,   1,1.00635,   6.3252,   1
  1871,'COLLEGE     ', 110.0000,1,     0.000,     0.000,   2,   1,1.03734,   0.2177,   1
  1881,'CHARLEVI    ', 110.0000,1,     0.000,     0.000,   3,   1,1.00327,   9.2668,   1
  1901,'CARLOW      ', 110.0000,1,     0.000,     0.000,   6,   1,1.02614,   2.1667,   1
  1921,'COW CROS    ', 110.0000,1,     0.000,     0.000,   3,   1,1.01304,   9.7391,   1
  1931,'CUNGHILL    ', 110.0000,1,     0.000,     0.000,   9,   1,1.00126,   8.9079,   4
  1941,'CUSHALIN    ', 110.0000,1,     0.000,     0.000,   8,   1,1.00000,   3.6034,   1
  1951,'CARROWBE    ', 110.0000,1,     0.000,     0.000,   9,   1,1.01310,   5.1871,   1
  1961,'CASTLEVI    ', 110.0000,1,     0.000,     0.000,   3,   1,1.01106,   9.5391,   1
  1971,'COOMAGEA    ', 110.0000,1,     0.000,     0.000,   7,   1,1.00456,  12.5037,   4
  1981,'CORRACLA    ', 110.0000,1,     0.000,     0.000,   9,   1,1.00060,   7.2483,   1
  1991,'CASTLEDO    ', 110.0000,1,     0.000,     0.000,   6,   1,1.01212,   3.9066,   1
  2001,'CULLENAG    ', 110.0000,1,     0.000,     0.000,   5,   1,1.00490,   4.0776,   1
  2002,'CULLENAG    ', 220.0000,1,     0.000,     0.000,   5,   1,1.01298,   5.0409,   1
  2021,'CITY WES    ', 110.0000,1,     0.000,     0.000,   1,   1,1.04642,  -0.1700,   2
  2031,'CHARLESL    ', 110.0000,1,     0.000,     0.000,   6,   1,1.02909,   0.2928,   1
  2041,'CORDUFF     ', 110.0000,1,     0.000,     0.000,   2,   1,1.03785,   0.2804,   1
  2042,'CORDUFF     ', 220.0000,1,     0.000,     0.000,   2,   1,1.05894,   0.8325,   1
  2051,'CORDUFF     ', 110.0000,1,     0.000,     0.000,   2,   1,1.03785,   0.2804,   1
  2081,'DUNKETTL    ', 110.0000,4,     0.000,     0.000,   3,   1,1.00000,   0.0000,   5
  2101,'DUNDALK     ', 110.0000,1,     0.000,     0.000,  10,   1,1.04315,   3.5323,   2
  2121,'DRUMLINE    ', 110.0000,1,     0.000,     0.000,   4,   1,1.00072,   7.8648,   1
  2141,'DUNGARVA    ', 110.0000,1,     0.000,     0.000,   5,   1,1.00863,   5.9376,   1
  2161,'DOON        ', 110.0000,1,     0.000,     0.000,   5,   1,0.98746,   4.2671,   1
  2181,'DRYBRIDG    ', 110.0000,1,     0.000,     0.000,  10,   1,1.02377,   1.3797,   1
  2202,'DUNSTOWN    ', 220.0000,1,     0.000,     0.000,   2,   7,1.03621,   2.2711,   1
  2204,'DUNSTOWN    ', 380.0000,1,     0.000,     0.000,   2,   1,1.03847,   4.6909,   1
  2221,'DUNMANWA    ', 110.0000,1,     0.000,     0.000,   3,   1,1.00102,  10.1574,   1
  2231,'DERRYBRI    ', 110.0000,1,     0.000,     0.000,   4,   1,1.00855,   8.1420,   2
  2241,'DALLOW      ', 110.0000,1,     0.000,     0.000,   5,   1,0.99788,   5.4535,   2
  2251,'DARDISTO    ', 110.0000,1,     0.000,     0.000,   1,   1,1.07471,  -0.4581,   1
  2261,'DERRYIRO    ', 110.0000,1,     0.000,     0.000,   8,   1,1.01357,   1.2755,   1
  2281,'DALTON      ', 110.0000,1,     0.000,     0.000,   9,   1,1.01290,   5.3789,   1
  2301,'DUNFIRTH    ', 110.0000,1,     0.000,     0.000,   8,   1,1.02311,   0.7239,   2
  2321,'DRUMKEEN    ', 110.0000,1,     0.000,     0.000,   9,   1,1.01723,  14.3833,   1
  2361,'ENNIS       ', 110.0000,1,     0.000,     0.000,   4,   1,1.00170,   7.6341,   1
  2481,'FASS EAS    ', 110.0000,1,     0.000,     0.000,   2,   2,1.03139,  -0.1828,   2
  2491,'FASS WES    ', 110.0000,1,     0.000,     0.000,   2,   2,1.03148,  -0.1777,   2
  2521,'FLAGFORD    ', 110.0000,1,     0.000,     0.000,   9,   1,1.00687,   6.2857,   1
  2522,'FLAGFORD    ', 220.0000,1,     0.000,     0.000,   9,   7,1.02039,   6.6366,   1
  2531,'FINNSTOW    ', 110.0000,1,     0.000,     0.000,   1,   1,1.04379,   0.2479,   1
  2532,'FINNSTOW    ', 220.0000,1,     0.000,     0.000,   2,   1,1.04187,   1.3212,   1
  2541,'FRN ST A    ', 110.0000,1,     0.000,     0.000,   1,   2,1.04686,  -1.1317,   2
  2551,'FRN ST B    ', 110.0000,1,     0.000,     0.000,   1,   2,1.04741,  -0.1202,   2
  2561,'FIN_URBA    ', 110.0000,1,     0.000,     0.000,   2,   2,1.06311,  -1.0528,   1
  2562,'FINGLAS     ', 220.0000,1,     0.000,     0.000,   2,   7,1.06192,   0.6416,   1
  2571,'FIN_RURA    ', 110.0000,1,     0.000,     0.000,   2,   2,1.07415,  -0.4351,   1
  2581,'FIN_SUBU    ', 110.0000,1,     0.000,     0.000,   2,   1,1.03734,   0.1998,   1
  2591,'FIN_OPEN    ', 110.0000,1,     0.000,     0.000,   2,   1,1.06192,   0.6416,   2
  2671,'GARVAGH     ', 110.0000,1,     0.000,     0.000,   9,   1,1.00000,   9.2750,   4
  2681,'GILRA       ', 110.0000,1,     0.000,     0.000,   9,   3,1.00337,   6.0797,   2
  2701,'GLASMORE    ', 110.0000,1,     0.000,     0.000,   1,   2,1.07264,  -0.7478,   2
  2721,'GRIFFINR    ', 110.0000,1,     0.000,     0.000,   2,   2,1.02274,   0.9271,   2
  2731,'GLANLEE     ', 110.0000,1,     0.000,     0.000,   7,   5,1.00459,  12.5231,   4
  2741,'GREAT IS    ', 110.0000,1,     0.000,     0.000,   6,   1,1.00643,   3.4286,   1
  2742,'GREAT IS    ', 220.0000,1,     0.000,     0.000,   6,   7,1.01477,   4.0702,   1
  2761,'GRANGE      ', 110.0000,1,     0.000,     0.000,   1,   2,1.07385,  -0.4803,   2
  2771,'GARROW      ', 110.0000,1,     0.000,     0.000,   7,   1,1.00475,  12.3577,   7
  2781,'GALWAY      ', 110.0000,1,     0.000,     0.000,   9,   1,1.01234,   5.3567,   1
  2801,'GOLAGH      ', 110.0000,1,     0.000,     0.000,   9,   1,1.00979,  13.0131,   4
  2821,'GORTAWEE    ', 110.0000,1,     0.000,     0.000,   9,   1,0.99852,   6.4175,   1
  2841,'GORMAN      ', 110.0000,1,     0.000,     0.000,  10,   1,1.02167,   2.0940,   1
  2842,'GORMAN      ', 220.0000,1,     0.000,     0.000,  10,   1,1.03096,   3.2580,   1
  2852,'GLANAGOW    ', 220.0000,1,     0.000,     0.000,   3,   1,1.01993,  11.3608,   1
  2861,'GRANGE C    ', 110.0000,1,     0.000,     0.000,   1,   1,1.04370,   0.2371,   2
  2881,'GLENLARA    ', 110.0000,1,     0.000,     0.000,   3,   1,1.00139,   9.8478,   2
  2941,'HAROLDS     ', 110.0000,1,     0.000,     0.000,   1,   2,1.04698,  -1.1235,   2
  2951,'HEUSTON     ', 110.0000,1,     0.000,     0.000,   1,   1,1.04745,  -0.1128,   1
  2962,'HUNTSTOW    ', 220.0000,1,     0.000,     0.000,   2,   1,1.06194,   0.6415,   4
  2972,'HUNTSTOW    ', 220.0000,1,     0.000,     0.000,   2,   1,1.05906,   0.8318,   4
  2981,'HARNETTS    ', 110.0000,1,     0.000,     0.000,   3,   1,1.00954,  10.6431,   2
  3061,'INISCARR    ', 110.0000,1,     0.000,     0.000,   3,   1,1.00784,  10.0311,   1
  3081,'INCH_CIT    ', 110.0000,1,     0.000,     0.000,   1,   2,1.04742,  -0.0921,   2
  3082,'INCHICOR    ', 220.0000,1,     0.000,     0.000,   2,   2,1.04519,   0.9821,   1
  3091,'INCH_COU    ', 110.0000,1,     0.000,     0.000,   1,   1,1.04435,   0.3080,   2
  3101,'IKERRIN     ', 110.0000,1,     0.000,     0.000,   5,   1,0.98927,   4.3725,   2
  3122,'IRISHTOW    ', 220.0000,1,     0.000,     0.000,   2,   1,1.04000,   1.4799,   1
  3201,'KNOCKRAH    ', 110.0000,1,     0.000,     0.000,   3,   1,1.01196,   9.5744,   1
  3202,'KNOCKRAH    ', 220.0000,1,     0.000,     0.000,   3,   7,1.01821,  12.8907,   1
  3211,'KNOCKRAH    ', 110.0000,1,     0.000,     0.000,   3,   1,1.01821,  12.8907,   1
  3212,'KNOCKRAH    ', 220.0000,1,     0.000,     0.000,   3,   1,1.01689,   9.7352,   1
  3221,'KILBARRY    ', 110.0000,1,     0.000,     0.000,   3,   1,1.00831,   9.5029,   1
  3241,'KILTEEL     ', 110.0000,1,     0.000,     0.000,   8,   1,1.01145,   0.9543,   2
  3261,'KILKENNY    ', 110.0000,1,     0.000,     0.000,   6,   1,1.00779,   1.8266,   1
  3281,'KILLONAN    ', 110.0000,1,     0.000,     0.000,   7,   1,1.01007,   8.5703,   1
  3282,'KILLONAN    ', 220.0000,1,     0.000,     0.000,   7,   7,1.00995,   9.4805,   1
  3301,'KNOCKERA    ', 110.0000,1,     0.000,     0.000,   7,   1,1.00020,  11.4813,   1
  3321,'KNOCKUMB    ', 110.0000,1,     0.000,     0.000,  10,   3,1.01423,   1.8397,   5
  3341,'KELLIS      ', 110.0000,1,     0.000,     0.000,   6,   1,1.02867,   2.1610,   1
  3342,'KELLIS      ', 220.0000,1,     0.000,     0.000,   6,   1,1.01767,   2.8359,   1
  3361,'KILTOY      ', 110.0000,1,     0.000,     0.000,   9,   3,1.01732,  14.3014,   5
  3381,'KINNEGAD    ', 110.0000,1,     0.000,     0.000,   8,   1,1.01630,   1.0119,   1
  3401,'KILLOTER    ', 110.0000,1,     0.000,     0.000,   5,   1,1.00268,   3.4818,   1
  3421,'KILMORE     ', 110.0000,1,     0.000,     0.000,   1,   1,1.07441,  -0.4608,   2
  3431,'KILMAHUD    ', 110.0000,1,     0.000,     0.000,   1,   1,1.04341,   0.2201,   1
  3501,'LANESBOR    ', 110.0000,1,     0.000,     0.000,   9,   1,1.00000,   5.3608,   1
  3521,'LOUTH       ', 110.0000,1,     0.000,     0.000,  10,   1,1.04778,   3.7995,   1
  3522,'LOUTH       ', 220.0000,1,     0.000,     0.000,  10,   7,1.03001,   4.9620,   1
  3541,'LIMERICK    ', 110.0000,1,     0.000,     0.000,   7,   1,1.00477,   8.5103,   1
  3561,'LISDRUM     ', 110.0000,1,     0.000,     0.000,  10,   1,1.02655,   4.0708,   1
  3572,'LONGPOIN    ', 220.0000,1,     0.000,     0.000,   3,   1,1.02000,  14.2758,   1
  3581,'LETTERKE    ', 110.0000,1,     0.000,     0.000,   9,   1,1.01731,  14.3017,   1
  3601,'LIBERTY     ', 110.0000,1,     0.000,     0.000,   3,   1,1.00841,   9.4693,   2
  3611,'LIBERTY     ', 110.0000,1,     0.000,     0.000,   3,   1,1.00846,   9.4726,   2
  3621,'LISHEEN     ', 110.0000,1,     0.000,     0.000,   5,   1,0.98505,   3.5095,   5
  3641,'LODGEWOO    ', 110.0000,1,     0.000,     0.000,   6,   1,1.01236,   3.8176,   1
  3642,'LODGEWOO    ', 220.0000,1,     0.000,     0.000,   6,   1,1.01949,   3.3171,   1
  3751,'MISERY H    ', 110.0000,1,     0.000,     0.000,   1,   1,1.04715,  -1.0955,   2
  3761,'MACETOWN    ', 110.0000,1,     0.000,     0.000,   1,   2,1.03675,   0.1732,   1
  3781,'MCDERMOT    ', 110.0000,1,     0.000,     0.000,   1,   2,1.06233,  -1.1705,   2
  3801,'MIDLETON    ', 110.0000,1,     0.000,     0.000,   3,   1,1.01021,   9.5248,   1
  3821,'MEATH HI    ', 110.0000,1,     0.000,     0.000,  10,   1,1.03368,   3.0841,   2
  3841,'MAYNOOTH    ', 110.0000,1,     0.000,     0.000,   2,   2,1.02365,   0.9934,   1
  3842,'MAYNOOTH    ', 220.0000,1,     0.000,     0.000,   2,   7,1.03823,   1.6911,   1
  3851,'MAYNOOTH    ', 110.0000,1,     0.000,     0.000,   2,   2,1.03211,   0.6028,   1
  3852,'MAYNOOTH    ', 220.0000,1,     0.000,     0.000,   2,   2,1.03939,   1.7210,   1
  3861,'MILLTOWN    ', 110.0000,1,     0.000,     0.000,   1,   2,1.04720,  -1.0732,   2
  3871,'MILLTOWN    ', 110.0000,1,     0.000,     0.000,   1,   2,1.04672,  -0.2202,   2
  3881,'MACROOM     ', 110.0000,1,     0.000,     0.000,   3,   1,1.00984,  10.6706,   1
  3901,'MONETEEN    ', 110.0000,1,     0.000,     0.000,   7,   1,1.00185,   8.5563,   1
  3934,'MNYPG1      ', 380.0000,1,     0.000,     6.000,   4,   1,1.04000,   8.2052,   1
  3941,'MONEYPOI    ', 110.0000,1,     0.000,     0.000,   4,   1,0.99617,   8.6796,   1
  3942,'MONEYPOI    ', 220.0000,1,     0.000,     0.000,   7,   1,1.04292,  11.6547,   1
...
0 / END OF BUS DATA, BEGIN LOAD DATA
    10,'LD',1,   1,   1,    49.350,     7.100,     0.000,     0.000,     0.000,     0.000,   2
    11,'LD',1,   1,   1,    23.590,     2.250,     0.000,     0.000,     0.000,     0.000,   2
    12,'LD',1,   1,   1,    25.460,     8.060,     0.000,     0.000,     0.000,     0.000,   2
    13,'LD',1,   1,   1,    33.020,    10.620,     0.000,     0.000,     0.000,     0.000,   2
    14,'LD',1,   1,   1,    17.330,     4.980,     0.000,     0.000,     0.000,     0.000,   2
    15,'LD',1,   1,   1,    36.470,     6.690,     0.000,     0.000,     0.000,     0.000,   2
  1041,'LD',1,   3,   1,     0.910,     0.310,     0.000,     0.000,     0.000,     0.000,   2
  1101,'DM',1,   5,   2,    11.000,     3.840,     0.000,     0.000,     0.000,     0.000,   5
  1101,'MI',0,   5,   2,     5.620,     1.680,     0.000,     0.000,     0.000,     0.000,   5
  3621,'DM',1,   5,   2,    14.000,     4.590,     0.000,     0.000,     0.000,     0.000,   5
  4341,'DM',1,   3,   2,     0.280,     0.100,     0.000,     0.000,     0.000,     0.000,   5
 10204,'LD',1,   4,   1,    -0.200,    -0.120,     0.000,     0.000,     0.000,     0.000,   2
 10205,'LD',1,   4,   1,    22.290,     7.330,     0.000,     0.000,     0.000,     0.000,   2
 10471,'HL',0,   3,   1,    11.990,     4.310,     0.000,     0.000,     0.000,     0.000,   3
 10475,'HL',0,   3,   1,     0.300,     0.100,     0.000,     0.000,     0.000,     0.000,   3
 10602,'LD',1,   9,   1,     1.280,     0.460,     0.000,     0.000,     0.000,     0.000,   2
 10801,'LD',1,   7,   1,     1.030,     0.110,     0.000,     0.000,     0.000,     0.000,   2
 10901,'LD',1,   1,   1,     2.430,     0.790,     0.000,     0.000,     0.000,     0.000,   2
 11201,'LD',1,   6,   1,     0.830,     0.230,     0.000,     0.000,     0.000,     0.000,   2
 11204,'LD',1,   6,   1,    17.790,    -0.290,     0.000,     0.000,     0.000,     0.000,   2
 11404,'LD',1,   9,   1,    22.800,     7.410,     0.000,     0.000,     0.000,     0.000,   2
 12001,'LD',1,   1,   1,     5.230,     1.370,     0.000,     0.000,     0.000,     0.000,   2
 12202,'LD',1,   8,   1,     7.030,     2.310,     0.000,     0.000,     0.000,     0.000,   2
 12402,'LD',1,   7,   1,     3.760,     1.130,     0.000,     0.000,     0.000,     0.000,   2
 12702,'DM',1,  10,   2,     2.000,     0.700,     0.000,     0.000,     0.000,     0.000,   5
 12702,'LD',1,  10,   1,     5.640,     1.500,     0.000,     0.000,     0.000,     0.000,   2
 12804,'LD',1,   3,   1,     4.450,     1.940,     0.000,     0.000,     0.000,     0.000,   2
 13001,'LD',1,   6,   1,     1.030,     0.470,     0.000,     0.000,     0.000,     0.000,   2
 13204,'LD',1,   8,   1,     9.150,     9.920,     0.000,     0.000,     0.000,     0.000,   2
 13302,'LD',1,   6,   1,     2.260,     0.680,     0.000,     0.000,     0.000,     0.000,   2
 13404,'LD',1,   9,   1,     4.690,     1.060,     0.000,     0.000,     0.000,     0.000,   2
 13501,'DM',1,   8,   2,     2.000,     0.600,     0.000,     0.000,     0.000,     0.000,   5
 13601,'DM',1,   5,   2,     2.500,     0.800,     0.000,     0.000,     0.000,     0.000,   5
 13601,'MI',0,   5,   2,     1.220,     0.360,     0.000,     0.000,     0.000,     0.000,   5
 13604,'LD',1,   5,   1,     3.310,     1.480,     0.000,     0.000,     0.000,     0.000,   2
 13701,'LD',1,   4,   1,     4.290,     1.320,     0.000,     0.000,     0.000,     0.000,   2
 13802,'LD',1,   3,   1,    21.050,     6.920,     0.000,     0.000,     0.000,     0.000,   2
 13804,'LD',1,   3,   1,    10.920,     3.590,     0.000,     0.000,     0.000,     0.000,   2
 14002,'LD',1,   9,   1,     1.250,     0.570,     0.000,     0.000,     0.000,     0.000,   2
 14204,'LD',1,   1,   1,    18.260,     0.660,     0.000,     0.000,     0.000,     0.000,   2
 14401,'LD',1,   3,   1,     1.600,     0.520,     0.000,     0.000,     0.000,     0.000,   2
 14404,'LD',1,   3,   1,    14.360,     1.970,     0.000,     0.000,     0.000,     0.000,   2
 14604,'LD',1,   5,   1,    10.040,     3.290,     0.000,     0.000,     0.000,     0.000,   2
 14804,'LD',1,   5,   1,    21.660,     4.330,     0.000,     0.000,     0.000,     0.000,   2
 15001,'DM',1,   3,   2,     4.200,     1.400,     0.000,     0.000,     0.000,     0.000,   5
 15001,'MI',0,   3,   2,     1.970,     0.590,     0.000,     0.000,     0.000,     0.000,   5
 15402,'LD',1,   6,   1,     5.910,     1.940,     0.000,     0.000,     0.000,     0.000,   2
 15704,'LD',1,   9,   1,     5.590,     1.850,     0.000,     0.000,     0.000,     0.000,   2
 15801,'LD',1,   1,   1,     4.980,     1.630,     0.000,     0.000,     0.000,     0.000,   2
 16202,'LD',1,   3,   1,     8.660,     2.100,     0.000,     0.000,     0.000,     0.000,   2
 16604,'LD',1,   9,   1,    15.840,     3.260,     0.000,     0.000,     0.000,     0.000,   2
 16901,'LD',1,   1,   1,     2.140,     0.750,     0.000,     0.000,     0.000,     0.000,   2
 17004,'LD',1,   9,   1,     6.530,     1.190,     0.000,     0.000,     0.000,     0.000,   2
 17204,'DM',1,   5,   2,     1.000,     0.300,     0.000,     0.000,     0.000,     0.000,   5
 17204,'LD',1,   5,   1,     9.570,     2.850,     0.000,     0.000,     0.000,     0.000,   2
 17404,'LD',1,   2,   1,    25.900,     7.760,     0.000,     0.000,     0.000,     0.000,   2
 17802,'DM',1,   7,   2,    44.000,    14.500,     0.000,     0.000,     0.000,     0.000,   5
 17802,'MI',0,   7,   2,     5.000,     1.500,     0.000,     0.000,     0.000,     0.000,   5
 18004,'LD',1,   1,   1,    28.380,     4.090,     0.000,     0.000,     0.000,     0.000,   2
 18204,'LD',1,   9,   1,    11.750,     3.770,     0.000,     0.000,     0.000,     0.000,   2
 18402,'LD',1,   6,   1,     0.560,     0.220,     0.000,     0.000,     0.000,     0.000,   2
 18404,'LD',1,   6,   1,     7.310,     2.570,     0.000,     0.000,     0.000,     0.000,   2
 18501,'LD',1,   2,   1,    10.010,     3.290,     0.000,     0.000,     0.000,     0.000,   2
 18604,'LD',1,   9,   1,    16.070,     4.220,     0.000,     0.000,     0.000,     0.000,   2
 18701,'DM',1,   2,   2,    22.800,     7.500,     0.000,     0.000,     0.000,     0.000,   5
 18701,'LD',1,   2,   1,     3.420,     1.370,     0.000,     0.000,     0.000,     0.000,   2
 18804,'LD',1,   3,   1,     3.880,     3.650,     0.000,     0.000,     0.000,     0.000,   2
 19004,'LD',1,   6,   1,    13.960,     2.120,     0.000,     0.000,     0.000,     0.000,   2
 19204,'LD',1,   3,   1,     3.350,     1.090,     0.000,     0.000,     0.000,     0.000,   2
 19471,'HL',1,   8,   2,     5.400,     1.940,     0.000,     0.000,     0.000,     0.000,   4
 19504,'LD',1,   9,   1,     8.280,     2.260,     0.000,     0.000,     0.000,     0.000,   2
 19601,'LD',1,   3,   1,    10.190,     3.340,     0.000,     0.000,     0.000,     0.000,   2
 20201,'LD',1,   1,   1,    11.980,     3.930,     0.000,     0.000,     0.000,     0.000,   2
 20301,'DM',1,   6,   2,     7.920,     2.600,     0.000,     0.000,     0.000,     0.000,   5
 21004,'LD',1,  10,   1,    15.040,     3.790,     0.000,     0.000,     0.000,     0.000,   2
 21204,'LD',1,   4,   1,     7.140,     0.960,     0.000,     0.000,     0.000,     0.000,   2
 21404,'LD',1,   5,   1,    11.610,     2.280,     0.000,     0.000,     0.000,     0.000,   2
 21604,'LD',1,   5,   1,    12.200,     1.250,     0.000,     0.000,     0.000,     0.000,   2
 21804,'LD',1,  10,   1,    27.130,     4.220,     0.000,     0.000,     0.000,     0.000,   2
 22204,'LD',1,   3,   1,    13.360,     2.120,     0.000,     0.000,     0.000,     0.000,   2
 22404,'LD',1,   5,   1,     3.240,     1.640,     0.000,     0.000,     0.000,     0.000,   2
 22501,'LD',1,   1,   1,     2.550,     0.810,     0.000,     0.000,     0.000,     0.000,   2
 22671,'HL',0,   8,   1,     0.300,     0.100,     0.000,     0.000,     0.000,     0.000,   1
 22672,'HL',0,   8,   1,     0.300,     0.100,     0.000,     0.000,     0.000,     0.000,   1
 22804,'LD',1,   9,   1,     8.320,     3.880,     0.000,     0.000,     0.000,     0.000,   2
 23001,'LD',1,   8,   1,     2.130,     0.700,     0.000,     0.000,     0.000,     0.000,   2
 23601,'LD',1,   4,   1,     4.630,     1.540,     0.000,     0.000,     0.000,     0.000,   2
 23604,'LD',1,   4,   1,    14.410,     2.330,     0.000,     0.000,     0.000,     0.000,   2
 24804,'LD',1,   2,   1,    17.540,     6.840,     0.000,     0.000,     0.000,     0.000,   2
 25604,'LD',1,   2,   1,    33.310,     5.890,     0.000,     0.000,     0.000,     0.000,   2
 26802,'DM',1,   9,   2,    11.870,     3.900,     0.000,     0.000,     0.000,     0.000,   5
 27004,'LD',1,   1,   1,    12.620,     3.340,     0.000,     0.000,     0.000,     0.000,   2
 27204,'LD',1,   2,   1,    26.650,    10.570,     0.000,     0.000,     0.000,     0.000,   2
 27404,'LD',1,   6,   1,     5.700,     2.280,     0.000,     0.000,     0.000,     0.000,   2
 27471,'HL',0,   6,   1,     3.000,     1.080,     0.000,     0.000,     0.000,     0.000,   3
 27472,'HL',0,   6,   1,     3.000,     1.080,     0.000,     0.000,     0.000,     0.000,   3
 27473,'HL',0,   6,   1,     7.990,     2.870,     0.000,     0.000,     0.000,     0.000,   3
 27604,'LD',1,   1,   1,    26.550,     8.280,     0.000,     0.000,     0.000,     0.000,   2
 27801,'LD',1,   9,   1,    18.880,     8.670,     0.000,     0.000,     0.000,     0.000,   2
 27804,'LD',1,   9,   1,    33.180,     2.460,     0.000,     0.000,     0.000,     0.000,   2
 28201,'DM',1,   9,   2,    17.000,     5.600,     0.000,     0.000,     0.000,     0.000,   5
 28201,'MI',0,   9,   2,     3.890,     1.160,     0.000,     0.000,     0.000,     0.000,   5
 28204,'LD',1,   9,   1,     3.760,     1.130,     0.000,     0.000,     0.000,     0.000,   2
 28571,'HL',1,   3,   1,     4.790,     1.720,     0.000,     0.000,     0.000,     0.000,   1
 28601,'LD',1,   1,   1,    -1.860,    -0.600,     0.000,     0.000,     0.000,     0.000,   2
 28604,'LD',1,   1,   1,    19.030,     1.030,     0.000,     0.000,     0.000,     0.000,   2
 28804,'LD',1,   3,   1,     4.980,     1.600,     0.000,     0.000,     0.000,     0.000,   2
 29401,'LD',1,   1,   1,    10.260,     3.360,     0.000,     0.000,     0.000,     0.000,   2
 29501,'LD',1,   1,   1,     2.140,     0.680,     0.000,     0.000,     0.000,     0.000,   2
 29672,'HL',0,   2,   2,     7.000,     2.520,     0.000,     0.000,     0.000,     0.000,   4
 29801,'LD',1,   3,   1,     3.350,     0.380,     0.000,     0.000,     0.000,     0.000,   2
 30804,'LD',1,   1,   1,    19.870,     5.100,     0.000,     0.000,     0.000,     0.000,   2
 31004,'LD',1,   5,   1,     7.630,     3.760,     0.000,     0.000,     0.000,     0.000,   2
 31271,'HL',1,   2,   2,     2.520,     0.900,     0.000,     0.000,     0.000,     0.000,   4
 32201,'LD',1,   3,   1,     3.160,     1.040,     0.000,     0.000,     0.000,     0.000,   2
 32204,'LD',1,   3,   1,    25.990,     1.810,     0.000,     0.000,     0.000,     0.000,   2
 32404,'LD',1,   8,   1,    16.530,     6.910,     0.000,     0.000,     0.000,     0.000,   2
 32604,'LD',1,   6,   1,    24.470,     6.100,     0.000,     0.000,     0.000,     0.000,   2
 33004,'LD',1,   7,   1,    16.300,     3.880,     0.000,     0.000,     0.000,     0.000,   2
 33201,'DM',1,  10,   2,    24.220,     8.000,     0.000,     0.000,     0.000,     0.000,   5
 33801,'DM',1,   8,   2,     4.000,     1.300,     0.000,     0.000,     0.000,     0.000,   5
 34001,'LD',1,   5,   1,     1.820,     0.520,     0.000,     0.000,     0.000,     0.000,   2
 34201,'DM',1,   1,   2,     6.720,     2.200,     0.000,     0.000,     0.000,     0.000,   5
 34201,'LD',1,   1,   1,     3.240,     1.190,     0.000,     0.000,     0.000,     0.000,   2
 34301,'DM',1,   1,   2,    23.750,     7.800,     0.000,     0.000,     0.000,     0.000,   5
 35004,'LD',1,   9,   1,     5.700,     2.090,     0.000,     0.000,     0.000,     0.000,   2
 35074,'HL',1,   9,   1,     2.250,     0.810,     0.000,     0.000,     0.000,     0.000,   3
 35404,'LD',1,   7,   1,    30.310,     7.670,     0.000,     0.000,     0.000,     0.000,   2
 35604,'LD',1,  10,   1,    10.370,     1.820,     0.000,     0.000,     0.000,     0.000,   2
 35771,'HL',1,   3,   1,     5.940,     2.130,     0.000,     0.000,     0.000,     0.000,   1
 35804,'LD',1,   9,   1,    16.110,     4.410,     0.000,     0.000,     0.000,     0.000,   2
 36001,'LD',1,   3,   1,     6.520,     2.140,     0.000,     0.000,     0.000,     0.000,   2
 37501,'DM',1,   1,   2,     2.000,     0.700,     0.000,     0.000,     0.000,     0.000,   5
 37501,'LD',1,   1,   1,     2.430,     0.800,     0.000,     0.000,     0.000,     0.000,   2
 37601,'LD',1,   2,   1,    18.890,     5.470,     0.000,     0.000,     0.000,     0.000,   2
 37602,'DM',1,   2,   2,     5.000,     1.600,     0.000,     0.000,     0.000,     0.000,   5
 37602,'MI',0,   2,   2,     5.440,     1.630,     0.000,     0.000,     0.000,     0.000,   5
 38001,'LD',1,   3,   1,     3.560,     1.160,     0.000,     0.000,     0.000,     0.000,   2
 38004,'LD',1,   3,   1,    11.400,     3.190,     0.000,     0.000,     0.000,     0.000,   2
 38204,'LD',1,  10,   1,    15.910,     8.200,     0.000,     0.000,     0.000,     0.000,   2
 38601,'LD',1,   1,   1,     4.560,     2.280,     0.000,     0.000,     0.000,     0.000,   2
 38701,'LD',1,   1,   1,     4.560,     2.280,     0.000,     0.000,     0.000,     0.000,   2
 38804,'LD',1,   3,   1,     0.590,     1.360,     0.000,     0.000,     0.000,     0.000,   2
 39471,'HL',1,   4,   1,     9.950,     3.580,     0.000,     0.000,     0.000,     0.000,   3
 39472,'HL',1,   7,   1,     9.950,     3.580,     0.000,     0.000,     0.000,     0.000,   3
 39473,'HL',1,   4,   1,     9.950,     3.580,     0.000,     0.000,     0.000,     0.000,   3
 39601,'LD',1,   3,   1,     7.850,     2.580,     0.000,     0.000,     0.000,     0.000,   2
 39672,'HL',0,   3,   1,     3.000,     1.080,     0.000,     0.000,     0.000,     0.000,   3
 39675,'HL',0,   3,   1,     5.000,     1.800,     0.000,     0.000,     0.000,     0.000,   3
 39801,'DM',1,   7,   2,    15.000,     4.900,     0.000,     0.000,     0.000,     0.000,   5
 40001,'LD',1,   9,   1,     5.450,     1.500,     0.000,     0.000,     0.000,     0.000,   2
 40004,'LD',1,   9,   1,     7.650,     1.460,     0.000,     0.000,     0.000,     0.000,   2
 40204,'LD',1,   3,   1,     7.080,     1.760,     0.000,     0.000,     0.000,     0.000,   2
 40404,'LD',1,   9,   1,    11.040,     2.040,     0.000,     0.000,     0.000,     0.000,   2
 40601,'LD',1,  10,   1,     1.050,     0.340,     0.000,     0.000,     0.000,     0.000,   2
 40602,'DM',1,  10,   2,     2.000,     0.700,     0.000,     0.000,     0.000,     0.000,   5
 40604,'LD',1,  10,   1,     7.500,     2.260,     0.000,     0.000,     0.000,     0.000,   2
 40801,'LD',1,   8,   1,     0.870,     0.290,     0.000,     0.000,     0.000,     0.000,   2
 42004,'LD',1,   8,   1,     9.370,     4.990,     0.000,     0.000,     0.000,     0.000,   2
 42102,'DM',1,   1,   2,     7.220,     2.400,     0.000,     0.000,     0.000,     0.000,   5
 42102,'LD',1,   1,   1,     5.910,     1.940,     0.000,     0.000,     0.000,     0.000,   2
 42204,'LD',1,  10,   1,    19.950,    12.880,     0.000,     0.000,     0.000,     0.000,   2
 42604,'LD',1,   7,   1,    10.720,     3.520,     0.000,     0.000,     0.000,     0.000,   2
 42802,'DM',1,   1,   2,    11.000,     3.600,     0.000,     0.000,     0.000,     0.000,   5
 43604,'LD',1,   7,   1,    17.670,     3.510,     0.000,     0.000,     0.000,     0.000,   2
 44001,'LD',1,   1,   1,     5.220,     1.750,     0.000,     0.000,     0.000,     0.000,   2
 44671,'HL',0,   2,   1,     5.500,     1.980,     0.000,     0.000,     0.000,     0.000,   3
 44672,'HL',0,   2,   1,     5.500,     1.980,     0.000,     0.000,     0.000,     0.000,   3
 44673,'HL',0,   2,   1,    12.990,     4.670,     0.000,     0.000,     0.000,     0.000,   3
 44804,'LD',1,   8,   1,     8.700,    -0.120,     0.000,     0.000,     0.000,     0.000,   2
 44901,'DM',1,   1,   2,     6.960,     2.290,     0.000,     0.000,     0.000,     0.000,   5
 44901,'LD',1,   1,   1,     3.110,     0.890,     0.000,     0.000,     0.000,     0.000,   2
 45001,'DM',1,  10,   2,    21.000,     6.600,     0.000,     0.000,     0.000,     0.000,   5
 45101,'LD',1,   1,   1,     5.640,     1.130,     0.000,     0.000,     0.000,     0.000,   2
 46210,'DM',1,   2,   2,    16.000,     5.300,     0.000,     0.000,     0.000,     0.000,   5
 46214,'DM',1,   2,   2,    26.000,     8.500,     0.000,     0.000,     0.000,     0.000,   5
 46224,'DM',1,   2,   2,    23.000,     7.600,     0.000,     0.000,     0.000,     0.000,   5
 46501,'LD',1,   1,   1,    11.740,     5.130,     0.000,     0.000,     0.000,     0.000,   2
 46804,'LD',1,   7,   1,    10.140,     1.940,     0.000,     0.000,     0.000,     0.000,   2
 47004,'LD',1,   9,   1,     8.700,     1.600,     0.000,     0.000,     0.000,     0.000,   2
 47402,'DM',1,   2,   2,     7.600,     2.500,     0.000,     0.000,     0.000,     0.000,   5
 47601,'LD',1,   3,   1,     0.800,     0.260,     0.000,     0.000,     0.000,     0.000,   2
 49474,'HL',1,   5,   1,     4.760,     1.710,     0.000,     0.000,     0.000,     0.000,   3
 49501,'LD',1,   9,   1,     3.760,     1.130,     0.000,     0.000,     0.000,     0.000,   2
 49504,'LD',1,   9,   1,    19.110,     4.510,     0.000,     0.000,     0.000,     0.000,   2
 49604,'LD',1,  10,   1,    18.230,     6.630,     0.000,     0.000,     0.000,     0.000,   2
 49701,'LD',1,   6,   1,     4.890,     1.350,     0.000,     0.000,     0.000,     0.000,   2
 49804,'LD',1,   9,   1,    20.280,     4.220,     0.000,     0.000,     0.000,     0.000,   2
 50004,'LD',1,   9,   1,    10.840,     3.270,     0.000,     0.000,     0.000,     0.000,   2
 50276,'HL',0,   2,   1,     9.990,     3.590,     0.000,     0.000,     0.000,     0.000,   3
 50301,'LD',1,   1,   1,     4.890,     1.610,     0.000,     0.000,     0.000,     0.000,   2
 50573,'HL',1,   7,   2,     0.240,     0.080,     0.000,     0.000,     0.000,     0.000,   4
 50574,'HL',1,   7,   2,     0.240,     0.080,     0.000,     0.000,     0.000,     0.000,   4
 50604,'LD',1,   6,   1,     6.270,     0.570,     0.000,     0.000,     0.000,     0.000,   2
 50901,'LD',1,   7,   1,     4.510,     1.240,     0.000,     0.000,     0.000,     0.000,   2
 51471,'HL',0,   7,   1,     3.000,     1.080,     0.000,     0.000,     0.000,     0.000,   3
 51472,'HL',0,   7,   1,     3.000,     1.080,     0.000,     0.000,     0.000,     0.000,   3
 51473,'HL',0,   7,   1,    15.300,     5.500,     0.000,     0.000,     0.000,     0.000,   3
 51474,'HL',0,   7,   1,    15.300,     5.500,     0.000,     0.000,     0.000,     0.000,   3
 51771,'HL',0,   4,   2,     6.000,     2.160,     0.000,     0.000,     0.000,     0.000,   4
...
0 / END OF LOAD DATA, BEGIN GENERATOR DATA
 10204,'2 ',     0.231,    -0.070,    -0.070,    -0.070,1.04000,     0,     0.895,   0.00000,   0.25400,   0.00000,   0.20000,1.00000,1,  100.0,     0.660,     0.000,   4,1.0000
 10204,'3 ',     2.625,    -0.820,    -0.820,    -0.820,1.04000,     0,     8.625,   0.00000, 999.00000,   0.00000,   0.20000,1.00000,1,  100.0,     7.500,     0.000,   2,1.0000
 10271,'1 ',    22.000,    -7.000,    15.000,    -7.000,1.00000,  1021,    34.000,   0.00000,   0.26000,   0.00000,   0.00000,1.00000,1,   15.0,    21.000,     5.000,   3,1.0000
 10272,'2 ',    22.000,    -7.000,    15.000,    -7.000,1.00000,  1021,    34.000,   0.00000,   0.26000,   0.00000,   0.00000,1.00000,1,   15.0,    22.000,     5.000,   3,1.0000
 10273,'3 ',    22.000,    -7.000,    15.000,    -7.000,1.00000,  1021,    34.000,   0.00000,   0.26000,   0.00000,   0.00000,1.00000,0,   15.0,    19.000,     5.000,   3,1.0000
 10274,'4 ',    23.000,    -7.000,    15.000,    -7.000,1.00000,  1021,    34.000,   0.00000,   0.25000,   0.00000,   0.00000,1.00000,0,   15.0,    24.000,     5.000,   3,1.0000
 10471,'1 ',   270.000,     0.000,   153.000,   -53.000,1.02000,  1042,   318.800,   0.00000,   0.26400,   0.00000,   0.00000,1.00000,0,  153.0,   270.000,    40.000,   3,1.0000
 10472,'11',    90.000,     0.000,    60.000,   -30.000,1.02000,  1072,   100.900,   0.00000,   0.14700,   0.00000,   0.00000,1.00000,0,   60.0,    90.000,    20.000,   3,1.0000
 10473,'12',    90.000,     0.000,    60.000,   -30.000,1.02000,  1052,   100.900,   0.00000,   0.14700,   0.00000,   0.00000,1.00000,0,   60.0,    90.000,    20.000,   3,1.0000
 10474,'14',    90.000,     0.000,    60.000,   -30.000,1.02000,  1072,   100.900,   0.00000,   0.14700,   0.00000,   0.00000,1.00000,0,   60.0,    90.000,    20.000,   3,1.0000
 10475,'5 ',    52.300,     0.000,    32.600,   -22.700,1.02000,  1041,    62.000,   0.00000,   0.25400,   0.00000,   0.00000,1.00000,0,   32.6,    52.300,     1.200,   3,1.0000
 10602,'1 ',     0.420,    -0.130,    -0.130,    -0.130,1.04000,     0,     1.380,   0.00000,   0.25400,   0.00000,   0.20000,1.00000,1,  100.0,     1.200,     0.000,   4,1.0000
 10602,'2 ',     1.680,    -0.520,    -0.520,    -0.520,1.04000,     0,     5.520,   0.00000,   0.25400,   0.00000,   0.20000,1.00000,1,  100.0,     4.800,     0.000,   4,1.0000
 10602,'3 ',     1.750,    -0.550,    -0.550,    -0.550,1.04000,     0,     5.750,   0.00000,   0.25400,   0.00000,   0.20000,1.00000,1,  100.0,     5.000,     0.000,   4,1.0000
 10602,'5 ',     1.890,    -1.770,    -1.770,    -2.300,1.04000,     0,     7.050,   0.00000,   0.25400,   0.00000,   0.05640,1.00000,1,  100.0,     5.400,     0.000,   2,1.0000
 11204,'1 ',     8.820,    -2.750,    -2.750,    -2.750,1.04000,     0,    29.000,   0.00000,   0.25400,   0.00000,   0.20000,1.00000,1,  100.0,    25.200,     0.000,   2,1.0000
 11371,'1 ',    17.850,   -10.876,    11.900,   -11.900,1.00000,  1131,    58.650,   0.00000,   0.25400,   0.00000,   0.00000,1.00000,1,  100.0,    51.000,     0.000,   4,1.0000
 11402,'1 ',     1.487,    -1.400,    -1.400,    -1.810,1.04000,     0,     4.475,   0.00000,   0.25400,   0.00000,   0.06000,1.00000,1,  100.0,     4.250,     0.000,   1,1.0000
 12371,'1 ',    14.700,    -9.700,     9.700,    -9.700,1.00000,  1231,    42.000,   0.00000,   0.25400,   0.00000,   0.00000,1.00000,1,  100.0,    42.000,     0.000,   4,1.0000
 12571,'1 ',     6.807,     0.489,     4.490,    -4.490,1.00000,  1251,    23.925,   0.00000,   0.25400,   0.00000,   0.00000,1.00000,1,  100.0,    19.450,     0.000,   4,1.0000
 12804,'1 ',     2.975,    -0.930,    -0.930,    -0.930,1.04000,     0,     8.950,   0.00000,   0.25400,   0.00000,   0.20000,1.00000,1,  100.0,     8.500,     0.000,   2,1.0000
 12804,'2 ',     6.842,    -2.140,    -2.140,    -2.140,1.04000,     0,    20.585,   0.00000,   0.25400,   0.00000,   0.20000,1.00000,1,  100.0,    19.550,     0.000,   2,1.0000
 13302,'1 ',     5.057,    -1.170,     2.030,    -3.360,1.00000,     0,    15.215,   0.00000,   0.25400,   0.00000,   0.06000,1.00000,1,  100.0,    14.450,     0.000,   2,1.0000
 13302,'2 ',     1.750,    -0.405,     0.700,    -1.190,1.00000,     0,     5.520,   0.00000,   0.25400,   0.00000,   0.00000,1.00000,1,  100.0,     5.000,     0.000,   2,1.0000
 13312,'1 ',     1.400,    -1.700,    -1.310,    -1.700,1.00000,  1331,     4.700,   0.00000,   0.25400,   0.00000,   0.56400,1.00000,1,  100.0,     4.000,     0.000,   1,1.0000
 13312,'2 ',     1.400,    -1.700,    -1.310,    -1.700,1.00000,  1331,     4.030,   0.00000,   0.25400,   0.00000,   0.06717,1.00000,1,  100.0,     4.000,     0.000,   1,1.0000
 13312,'3 ',     1.260,    -1.530,    -1.180,    -1.530,1.00000,  1331,     3.600,   0.00000,   0.25400,   0.00000,   0.05400,1.00000,1,  100.0,     3.600,     0.000,   1,1.0000
 13312,'4 ',     5.180,    -3.430,     3.430,    -3.430,1.00000,  1331,    17.350,   0.00000,   0.25400,   0.00000,   0.05627,1.00000,1,  100.0,    14.800,     0.000,   1,1.0000
 13404,'1 ',     0.231,    -0.070,    -0.070,    -0.070,1.04000,     0,     0.759,   0.00000,   0.25400,   0.00000,   0.20000,1.00000,1,  100.0,     0.660,     0.000,   4,1.0000
 13404,'2 ',     0.893,    -0.280,    -0.280,    -0.280,1.04000,     0,     2.685,   0.00000,   0.25400,   0.00000,   0.20000,1.00000,1,  100.0,     2.550,     0.000,   2,1.0000
 13404,'3 ',     4.165,    -1.300,    -1.300,    -1.300,1.04000,     0,    13.685,   0.00000,   0.25400,   0.00000,   0.20000,1.00000,1,  100.0,    11.900,     0.000,   2,1.0000
 13404,'4 ',     5.250,    -1.640,    -1.640,    -1.640,1.04000,     0,    17.170,   0.00000,   0.25400,   0.00000,   0.20000,1.00000,1,  100.0,    15.000,     0.000,   2,1.0000
 13404,'5 ',     2.100,    -0.660,    -0.660,    -0.660,1.04000,     0,     6.900,   0.00000,   0.25400,   0.00000,   0.20000,1.00000,1,  100.0,     6.000,     0.000,   2,1.0000
 13404,'6 ',     2.678,    -0.840,    -0.840,    -0.840,1.04000,     0,     8.055,   0.00000,   0.25400,   0.00000,   0.20000,1.00000,1,  100.0,     7.650,     0.000,   2,1.0000
 14002,'3 ',     2.257,    -0.700,    -0.700,    -0.700,1.04000,     0,     7.418,   0.00000,   0.25400,   0.00000,   0.10000,1.00000,1,  100.0,     6.450,     0.000,   3,1.0000
 14404,'1 ',     1.575,    -0.490,    -0.490,    -0.490,1.04000,     0,     5.151,   0.00000,   0.25400,   0.00000,   0.20000,1.00000,1,  100.0,     4.500,     0.000,   2,1.0000
 14604,'1 ',     4.800,     0.000,     1.000,    -1.000,1.05000,     0,     7.000,   0.00000,   0.14800,   0.00000,   0.10000,1.00000,0,    1.0,     4.800,     0.000,   5,1.0000
 14804,'1 ',     0.595,    -0.190,    -0.190,    -0.190,1.04000,     0,     1.790,   0.00000,   0.25400,   0.00000,   0.20000,1.00000,1,  100.0,     1.700,     0.000,   4,1.0000
 16371,'1 ',     1.190,     0.490,     0.490,    -0.770,1.01500, 16302,     3.580,   0.00000,   0.25400,   0.00000,   0.10000,1.00000,1,  100.0,     3.400,     0.000,   1,1.0000
 16372,'2 ',     1.190,    -0.737,     0.490,    -0.770,1.00000,     0,     3.580,   0.00000,   0.25400,   0.00000,   0.10000,1.00000,1,  100.0,     3.400,     0.000,   1,1.0000
 16373,'3 ',     2.380,     0.980,     0.980,    -1.610,1.01500, 16302,     7.160,   0.00000,   0.25400,   0.00000,   0.10000,1.00000,1,  100.0,     6.800,     0.000,   1,1.0000
 16374,'4 ',     2.660,     1.760,     1.760,    -1.760,1.01500, 16302,     8.055,   0.00000,   0.25400,   0.00000,   0.10000,1.00000,1,  100.0,     7.600,     0.000,   1,1.0000
 16375,'5 ',     1.487,     0.980,     0.980,    -0.980,1.01500, 16302,     4.475,   0.00000,   0.25400,   0.00000,   0.10000,1.00000,1,  100.0,     4.250,     0.000,   1,1.0000
 16376,'6 ',     1.732,    -0.540,    -0.540,    -0.540,1.00000,     0,     5.370,   0.00000,   0.25400,   0.00000,   0.10000,1.00000,1,  100.0,     4.950,     0.000,   4,1.0000
 16377,'1 ',     3.150,    -2.100,     2.100,    -2.100,1.00000,  1631,     9.570,   0.00000,   0.25400,   0.00000,   0.00000,1.00000,1,  100.0,     9.000,     0.000,   1,1.0000
 16378,'1 ',     0.559,    -0.530,    -0.530,    -0.680,1.04000,     0,     1.790,   0.00000,   0.25400,   0.00000,   0.00000,1.00000,1,  100.0,     1.598,     0.000,   1,1.0000
 16571,'1 ',    13.230,    -8.770,     8.770,    -8.770,1.00000,  1651,    39.000,   0.00000,   0.25400,   0.00000,   0.00000,1.00000,1,  100.0,    37.800,     0.000,   4,1.0000
 16602,'1 ',     1.190,    -0.370,    -0.370,    -0.370,1.04000,     0,     3.580,   0.00000,   0.25400,   0.00000,   0.06000,1.00000,1,  100.0,     3.400,     0.000,   4,1.0000
 16602,'2 ',     0.595,    -0.560,    -0.560,    -0.730,1.04000,     0,     1.790,   0.00000,   0.25400,   0.00000,   0.06000,1.00000,1,  100.0,     1.700,     0.000,   1,1.0000
 16604,'2 ',     6.545,    -2.040,    -2.040,    -2.040,1.00000,     0,    19.690,   0.00000,   0.25400,   0.00000,   0.20000,1.00000,1,  100.0,    18.700,     0.000,   4,1.0000
 16604,'3 ',     0.735,    -0.230,    -0.230,    -0.230,1.00000,     0,     2.300,   0.00000,   0.25400,   0.00000,   0.00000,1.00000,1,  100.0,     2.100,     0.000,   2,1.0000
 16612,'1 ',     2.975,    -2.790,    -2.790,    -3.620,1.04000,     0,     8.950,   0.00000,   0.25400,   0.00000,   0.06000,1.00000,1,  100.0,     8.500,     0.000,   1,1.0000
 16873,'3 ',     8.000,    -1.000,     7.000,    -1.000,1.00000,  1681,    11.500,   0.00000,   0.31700,   0.00000,   0.00000,1.00000,1,    7.0,     8.000,     2.000,   3,1.0000
 17004,'5 ',     0.693,    -0.220,    -0.220,    -0.220,1.04000,     0,     3.100,   0.00000,   0.25400,   0.00000,   0.20000,1.00000,1,  100.0,     1.980,     0.000,   4,1.0000
 17004,'6 ',     0.385,    -0.120,    -0.120,    -0.120,1.04000,     0,     1.500,   0.00000,   0.25400,   0.00000,   0.20000,1.00000,1,  100.0,     1.100,     0.000,   4,1.0000
 17004,'7 ',     1.190,    -0.370,    -0.370,    -0.370,1.04000,     0,     3.580,   0.00000,   0.25400,   0.00000,   0.20000,1.00000,1,  100.0,     3.400,     0.000,   2,1.0000
 17073,'3 ',    22.500,   -10.000,     7.000,   -10.000,1.00000,  1701,    30.000,   0.00000,   0.25400,   0.00000,   0.00000,1.00000,1,    7.0,    22.500,     5.000,   3,1.0000
 17074,'4 ',    22.500,    -3.613,     7.000,   -10.000,1.00000,  1701,    30.000,   0.00000,   0.25400,   0.00000,   0.00000,1.00000,0,    7.0,    22.500,     5.000,   3,1.0000
 17671,'1 ',    10.000,    -3.000,     7.000,    -3.000,1.00000,  1701,    12.500,   0.00000,   0.19000,   0.00000,   0.00000,1.00000,1,    7.0,    10.000,     3.000,   3,1.0000
 17672,'2 ',    10.000,    -3.000,     7.000,    -3.000,1.00000,  1701,    12.500,   0.00000,   0.19000,   0.00000,   0.00000,1.00000,0,    7.0,    10.000,     3.000,   3,1.0000
 17771,'1 ',    14.429,    -9.590,     9.590,    -9.590,1.00000,  2771,    42.925,   0.00000,   0.25400,   0.00000,   0.00000,1.00000,1,  100.0,    41.225,     0.000,   4,1.0000
 18404,'1 ',     1.747,    -0.550,    -0.550,    -0.550,1.04000,     0,     5.739,   0.00000,   0.25400,   0.00000,   0.20000,1.00000,1,  100.0,     4.990,     0.000,   2,1.0000
 18802,'1 ',     1.050,    -0.330,    -0.330,    -0.330,1.04000,     0,     3.125,   0.00000,   0.25400,   0.00000,   0.07962,1.00000,1,  100.0,     3.000,     0.000,   1,1.0000
 19071,'1 ',     0.893,    -0.280,    -0.280,    -0.280,1.04000,     0,     2.685,   0.00000,   0.25400,   0.00000,   0.06000,1.00000,1,  100.0,     2.550,     0.000,   4,1.0000
 19071,'2 ',     0.595,    -0.560,    -0.560,    -0.730,1.04000,     0,     1.790,   0.00000,   0.25400,   0.00000,   0.06000,1.00000,1,  100.0,     1.700,     0.000,   4,1.0000
 19072,'1 ',     1.750,    -0.550,    -0.550,    -0.550,1.04000,     0,     7.050,   0.00000,   0.25400,   0.00000,   0.05640,1.00000,1,  100.0,     4.999,     0.000,   4,1.0000
 19072,'2 ',     1.575,    -0.490,    -0.490,    -0.490,1.04000,     0,     4.700,   0.00000,   0.25400,   0.00000,   0.05647,1.00000,1,  100.0,     4.500,     0.000,   4,1.0000
 19073,'1 ',     7.350,    -6.900,    -6.900,    -8.950,1.04000,     0,    21.875,   0.00000,   0.25400,   0.00000,   0.07962,1.00000,1,  100.0,    21.000,     0.000,   4,1.0000
 19371,'1 ',    12.180,    -8.120,     8.120,    -8.120,1.00000,  1931,    36.500,   0.00000,   0.25400,   0.00000,   0.00000,1.00000,1,  100.0,    34.800,     0.000,   4,1.0000
 19471,'1 ',    60.000,   -31.057,    75.000,   -50.000,1.00000,  1941,   153.000,   0.00000,   0.18800,   0.00000,   0.00000,1.00000,1,   75.0,   130.000,    60.000,   4,1.0000
 19771,'1 ',    14.875,    -9.940,     5.950,    -9.940,1.00000,  1971,    45.000,   0.00000,   0.25400,   0.00000,   0.00000,1.00000,1,  100.0,    42.500,     0.000,   4,1.0000
 19902,'1 ',    14.490,    -9.660,     9.660,    -9.660,1.00000,  1991,    41.400,   0.00000,   0.25400,   0.00000,   0.00000,1.00000,1,  100.0,    41.400,     0.000,   1,1.0000
 21004,'1 ',     2.625,    -0.820,    -0.820,    -0.820,1.04000,     0,     8.625,   0.00000,   0.25400,   0.00000,   0.20000,1.00000,1,  100.0,     7.500,     0.000,   4,1.0000
 21004,'2 ',     0.175,    -0.050,    -0.050,    -0.050,1.04000,     0,     0.895,   0.00000,   0.25400,   0.00000,   0.20000,1.00000,1,  100.0,     0.500,     0.000,   2,1.0000
 21402,'1 ',     0.595,    -0.560,    -0.560,    -0.730,1.04000,     0,     1.790,   0.00000,   0.25400,   0.00000,   0.06000,1.00000,1,  100.0,     1.700,     0.000,   1,1.0000
 21802,'1 ',     0.595,    -0.190,    -0.190,    -0.190,1.04000,     0,     1.790,   0.00000,   0.25400,   0.00000,   0.06000,1.00000,1,  100.0,     1.700,     0.000,   4,1.0000
 21802,'2 ',     1.050,    -0.990,    -0.990,    -1.280,1.04000,     0,     3.125,   0.00000,   0.25400,   0.00000,   0.07962,1.00000,1,  100.0,     3.000,     0.000,   1,1.0000
 22204,'1 ',     1.617,    -0.500,    -0.500,    -0.500,1.04000,     0,     5.313,   0.00000,   0.25400,   0.00000,   0.20000,1.00000,1,  100.0,     4.620,     0.000,   3,1.0000
 22204,'2 ',     2.079,    -0.650,    -0.650,    -0.650,1.04000,     0,     6.831,   0.00000,   0.25400,   0.00000,   0.20000,1.00000,1,  100.0,     5.940,     0.000,   3,1.0000
 22204,'3 ',     2.082,    -0.650,    -0.650,    -0.650,1.04000,     0,     6.868,   0.00000,   0.25400,   0.00000,   0.20000,1.00000,1,  100.0,     5.950,     0.000,   4,1.0000
 22204,'4 ',     1.487,    -0.460,    -0.460,    -0.460,1.04000,     0,     5.000,   0.00000,   0.20000,   0.00000,   0.20000,1.00000,1,  100.0,     4.250,     0.000,   4,1.0000
 22371,'1 ',    20.825,   -13.880,     8.330,   -13.880,1.00000,  2231,    62.650,   0.00000,   0.25400,   0.00000,   0.00000,1.00000,1,  100.0,    59.500,     0.000,   4,1.0000
 22404,'1 ',     0.893,    -0.280,    -0.280,    -0.280,1.04000,     0,     2.685,   0.00000,   0.20000,   0.00000,   0.20000,1.00000,1,  100.0,     2.550,     0.000,   4,1.0000
 22404,'2 ',     1.487,    -0.460,    -0.460,    -0.460,1.04000,     0,     5.000,   0.00000,   0.20000,   0.00000,   0.20000,1.00000,1,  100.0,     4.250,     0.000,   4,1.0000
 22671,'1 ',    52.100,     0.000,    32.600,   -22.700,1.02000,  2261,    62.000,   0.00000,   0.25400,   0.00000,   0.00000,1.00000,0,   32.6,    52.100,     1.200,   3,1.0000
 22672,'2 ',    52.100,     0.000,    32.600,   -22.700,1.02000,  2261,    62.000,   0.00000,   0.25400,   0.00000,   0.00000,1.00000,0,   32.6,    52.100,     1.200,   3,1.0000
 22802,'1 ',     0.893,    -0.840,    -0.840,    -1.090,1.04000,     0,     2.685,   0.00000,   0.25400,   0.00000,   0.06000,1.00000,1,  100.0,     2.550,     0.000,   1,1.0000
 26702,'1 ',    11.034,    -6.766,     7.350,    -7.350,1.00000,  2671,    32.500,   0.00000,   0.25400,   0.00000,   0.00000,1.00000,1,  100.0,    31.525,     0.000,   4,1.0000
 26703,'1 ',     9.345,    -6.230,     6.230,    -6.230,1.00000,  2671,    26.700,   0.00000,   0.25400,   0.00000,   0.00000,1.00000,1,  100.0,    26.700,     0.000,   4,1.0000
 27204,'5 ',     4.000,     0.000,     1.000,    -1.000,1.04000,     0,     5.000,   0.00000,   0.30000,   0.00000,   0.10000,1.00000,0,    1.0,     4.000,     0.000,   3,1.0000
 27371,'1 ',     4.480,    -3.010,     1.820,    -3.010,1.00000,  2731,    15.215,   0.00000,   0.25400,   0.00000,   0.00000,1.00000,1,  100.0,    12.800,     0.000,   4,1.0000
 27372,'2 ',     5.950,    -3.990,     2.380,    -3.990,1.00000,  2731,    18.750,   0.00000,   0.25400,   0.00000,   0.00000,1.00000,1,  100.0,    17.000,     0.000,   4,1.0000
 27402,'1 ',     1.487,    -1.400,    -1.400,    -1.810,1.04000,     0,     4.475,   0.00000,   0.25400,   0.00000,   0.06000,1.00000,1,  100.0,     4.250,     0.000,   1,1.0000
 27471,'1 ',    57.000,     0.000,    42.000,    -3.000,1.00000,  2741,    75.000,   0.00000,   0.20300,   0.00000,   0.00000,1.00000,0,   42.0,    57.000,    25.000,   3,1.0000
 27472,'2 ',    57.000,     0.000,    40.000,    -3.000,1.00000,  2741,    75.000,   0.00000,   0.20300,   0.00000,   0.00000,1.00000,0,   40.0,    57.000,    25.000,   3,1.0000
 27473,'3 ',   116.000,     0.000,    82.000,   -48.000,1.04000,  2742,   150.000,   0.00000,   0.18500,   0.00000,   0.00000,1.00000,0,   82.0,   116.000,    30.000,   3,1.0000
 27804,'1 ',     1.155,    -0.360,    -0.360,    -0.360,1.04000,     0,     3.795,   0.00000,   0.25400,   0.00000,   0.20000,1.00000,1,  100.0,     3.300,     0.000,   4,1.0000
 27804,'2 ',     0.236,    -0.070,    -0.070,    -0.070,1.04000,     0,     0.776,   0.00000,   0.25400,   0.00000,   0.20000,1.00000,1,  100.0,     0.675,     0.000,   2,1.0000
 28002,'1 ',     5.250,    -2.170,    -2.170,    -2.170,1.00000,     0,    17.250,   0.00000,   0.25400,   0.00000,   0.10000,1.00000,1,  100.0,    15.000,     0.000,   4,1.0000
 28571,'1 ',   220.000,   -17.696,   282.100,  -196.800,1.02000,  1062,   535.500,   0.00000,   0.24500,   0.00000,   0.00000,1.00000,1,  282.1,   450.470,   110.100,   4,1.0000
 28804,'2 ',     8.855,    -2.760,    -2.760,    -2.760,1.04000,     0,    28.578,   0.00000,   0.20000,   0.00000,   0.20000,1.00000,1,  100.0,    25.300,     0.000,   4,1.0000
 28814,'1 ',     3.675,    -1.150,    -1.150,    -1.150,1.04000,     0,    12.019,   0.00000,   0.25400,   0.00000,   0.20000,1.00000,1,  100.0,    10.500,     0.000,   2,1.0000
 29671,'ST',   120.000,     0.000,    90.000,   -47.000,1.04000,  2562,   150.000,   0.00000,   0.18800,   0.00000,   0.00000,1.00000,0,   90.0,   120.000,    40.000,   4,1.0000
 29672,'CT',   230.000,     0.000,   173.000,  -106.000,1.04000,  2562,   288.000,   0.00000,   0.17900,   0.00000,   0.00000,1.00000,0,  173.0,   230.000,   138.000,   4,1.0000
 29673,'2 ',   400.000,     0.000,   249.000,  -100.000,1.04000,  2562,   473.000,   0.00500,   0.25600,   0.00000,   0.00000,1.00000,0,  249.0,   400.000,   257.000,   4,1.0000
 30671,'1 ',    15.000,     0.000,    13.000,    -4.000,1.00000,  3061,    21.400,   0.00000,   0.20300,   0.00000,   0.00000,1.00000,0,   13.0,    15.000,     4.000,   3,1.0000
 30671,'2 ',     4.000,    -1.000,     3.000,    -1.000,1.00000,  3061,     5.700,   0.00000,   0.17800,   0.00000,   0.00000,1.00000,1,   13.0,     4.000,     1.000,   3,1.0000
 31002,'1 ',     0.893,    -0.280,    -0.280,    -0.280,1.04000,     0,     2.685,   0.00000,   0.25400,   0.00000,   0.06000,1.00000,1,  100.0,     2.550,     0.000,   1,1.0000
 31002,'2 ',     0.298,    -0.280,    -0.280,    -0.360,1.04000,     0,     0.895,   0.00000,   0.25400,   0.00000,   0.06000,1.00000,1,  100.0,     0.850,     0.000,   1,1.0000
 31004,'1 ',     0.893,    -0.280,    -0.280,    -0.280,1.04000,     0,     2.685,   0.00000,   0.25400,   0.00000,   0.20000,1.00000,1,  100.0,     2.550,     0.000,   2,1.0000
 31271,'1 ',   150.000,   -73.276,   200.000,  -114.000,1.04000,  3122,   500.000,   0.00000,   0.27000,   0.00000,   0.00000,1.00000,1,  200.0,   409.900,   163.000,   4,1.0000
 32404,'1 ',     4.100,     0.000,     1.000,    -1.000,1.04000,     0,     4.800,   0.00000,   0.25000,   0.00000,   0.06000,1.00000,0,    1.0,     4.100,     0.000,   2,1.0000
 32604,'1 ',     7.500,     0.000,     1.000,    -1.000,1.05000,     0,     8.500,   0.00000,   0.14800,   0.00000,   0.10000,1.00000,0,    1.0,     7.500,     0.000,   5,1.0000
 33004,'1 ',     3.272,    -1.020,    -1.020,    -1.020,1.04000,     0,     9.845,   0.00000,   0.25400,   0.00000,   0.20000,1.00000,1,  100.0,     9.350,     0.000,   2,1.0000
 35002,'1 ',     1.750,    -1.640,    -1.640,    -2.130,1.04000,     0,     6.045,   0.00000,   0.25400,   0.00000,   0.06717,1.00000,1,  100.0,     5.000,     0.000,   2,1.0000
 35074,'4 ',    25.000,   -11.480,    60.000,   -20.000,1.00000,  3501,   121.100,   0.00500,   0.23000,   0.00000,   0.00000,1.00000,1,   60.0,   100.000,    25.000,   3,1.0000
 35771,'1 ',   220.000,    -2.360,   250.000,   -80.000,1.02000,  3572,   500.000,   0.00000,   0.22500,   0.00000,   0.00000,1.00000,1,  250.0,   442.960,   222.000,   1,1.0000
 35802,'1 ',     0.893,    -0.280,    -0.280,    -0.280,1.04000,     0,     2.685,   0.00000,   0.25400,   0.00000,   0.06000,1.00000,1,  100.0,     2.550,     0.000,   4,1.0000
 35802,'2 ',     0.893,    -0.280,    -0.280,    -0.280,1.04000,     0,     2.685,   0.00000,   0.25400,   0.00000,   0.06000,1.00000,1,  100.0,     2.550,     0.000,   4,1.0000
 35802,'3 ',     1.190,    -1.120,    -1.120,    -1.450,1.04000,     0,     3.600,   0.00000,   0.25400,   0.00000,   0.05400,1.00000,1,  100.0,     3.400,     0.000,   1,1.0000
 35804,'1 ',     5.250,    -1.640,    -1.640,    -1.640,1.04000,     0,    17.250,   0.00000,   0.25400,   0.00000,   0.20000,1.00000,1,  100.0,    15.000,     0.000,   4,1.0000
 35804,'2 ',     1.743,    -0.540,    -0.540,    -0.540,1.04000,     0,     5.727,   0.00000,   0.25400,   0.00000,   0.20000,1.00000,1,  100.0,     4.980,     0.000,   4,1.0000
 35804,'3 ',     4.158,    -1.300,    -1.300,    -1.300,1.04000,     0,    13.662,   0.00000,   0.25400,   0.00000,   0.20000,1.00000,1,  100.0,    11.880,     0.000,   4,1.0000
 35804,'6 ',     1.785,    -0.560,    -0.560,    -0.560,1.04000,     0,     5.370,   0.00000,   0.25400,   0.00000,   0.20000,1.00000,1,  100.0,     5.100,     0.000,   2,1.0000
 38002,'1 ',     0.595,    -0.560,    -0.560,    -0.730,1.04000,     0,     1.790,   0.00000,   0.25400,   0.00000,   0.06000,1.00000,1,  100.0,     1.700,     0.000,   1,1.0000
 38204,'1 ',     3.675,    -1.150,    -1.150,    -1.150,1.04000,     0,    12.019,   0.00000,   0.25400,   0.00000,   0.20000,1.00000,1,  100.0,    10.500,     0.000,   4,1.0000
...